Version 4
SHEET 1 1860 680
WIRE -704 -176 -720 -176
WIRE -608 -176 -640 -176
WIRE 256 -144 128 -144
WIRE 480 -144 256 -144
WIRE 608 -144 480 -144
WIRE 848 -144 608 -144
WIRE 608 -112 608 -144
WIRE 256 -96 256 -144
WIRE -1504 -64 -1536 -64
WIRE -1024 -64 -1040 -64
WIRE -352 -64 -352 -112
WIRE -352 -64 -384 -64
WIRE -304 -64 -352 -64
WIRE -240 -64 -304 -64
WIRE -304 -32 -304 -64
WIRE -240 -32 -240 -64
WIRE 480 -32 480 -144
WIRE -1536 -16 -1536 -64
WIRE -1536 -16 -1584 -16
WIRE -1456 -16 -1536 -16
WIRE -1040 -16 -1040 -64
WIRE 128 -16 128 -144
WIRE -1072 0 -1104 0
WIRE -672 0 -672 -32
WIRE -384 0 -384 -64
WIRE 848 0 848 -144
WIRE -1456 16 -1456 -16
WIRE -960 16 -1008 16
WIRE -928 16 -960 16
WIRE -816 16 -848 16
WIRE -720 16 -720 -176
WIRE -720 16 -736 16
WIRE -704 16 -720 16
WIRE -1072 32 -1136 32
WIRE -608 32 -608 -176
WIRE -608 32 -640 32
WIRE -560 32 -608 32
WIRE -416 32 -512 32
WIRE -704 48 -752 48
WIRE -240 48 -336 48
WIRE -192 48 -240 48
WIRE -96 48 -128 48
WIRE -1584 64 -1584 -16
WIRE -560 64 -560 32
WIRE -416 64 -560 64
WIRE 256 64 256 0
WIRE 384 64 256 64
WIRE 608 64 608 -16
WIRE 608 64 464 64
WIRE -1040 80 -1040 48
WIRE -752 80 -752 48
WIRE -512 80 -512 32
WIRE -416 80 -416 64
WIRE -672 96 -672 64
WIRE -1456 112 -1456 96
WIRE -1392 112 -1456 112
WIRE -400 112 -400 96
WIRE -400 112 -432 112
WIRE -384 112 -384 96
WIRE -384 112 -400 112
WIRE -400 128 -400 112
WIRE -96 128 -400 128
WIRE -400 144 -400 128
WIRE 256 144 256 64
WIRE 608 144 608 64
WIRE -432 160 -432 112
WIRE -432 160 -512 160
WIRE -1136 176 -1136 32
WIRE -1120 176 -1136 176
WIRE -960 176 -960 16
WIRE -1584 224 -1584 144
WIRE -1520 224 -1584 224
WIRE -1456 224 -1456 192
WIRE -1456 224 -1520 224
WIRE 128 224 128 -16
WIRE 128 240 128 224
WIRE -1520 256 -1520 224
WIRE -1136 256 -1136 176
WIRE -880 256 -1136 256
WIRE -608 256 -608 32
WIRE -608 256 -800 256
WIRE 256 304 256 240
WIRE 416 304 256 304
WIRE 480 304 480 224
WIRE 480 304 416 304
WIRE 608 304 608 240
WIRE 608 304 480 304
WIRE 848 304 848 80
WIRE 848 304 608 304
WIRE 416 336 416 304
FLAG 416 336 0
FLAG -672 96 0
FLAG -1040 80 0
FLAG -1520 256 0
FLAG -1392 112 Vref
IOPIN -1392 112 Out
FLAG -1504 -64 12v
IOPIN -1504 -64 BiDir
FLAG -752 80 Vref
IOPIN -752 80 In
FLAG -1104 0 Vref
IOPIN -1104 0 In
FLAG -1024 -64 12v
IOPIN -1024 -64 BiDir
FLAG -672 -32 12v
IOPIN -672 -32 BiDir
FLAG -400 144 0
FLAG -352 -112 12v
IOPIN -352 -112 BiDir
SYMBOL nmos 208 144 R0
SYMATTR InstName M1
SYMATTR Value irf540n
SYMATTR Prefix x
SYMBOL voltage -1584 48 R0
WINDOW 123 0 0 Left 0
WINDOW 39 0 0 Left 0
SYMATTR InstName V1
SYMATTR Value 12
SYMBOL nmos 560 144 R0
SYMATTR InstName M2
SYMATTR Value irf540n
SYMATTR Prefix x
SYMBOL nmos 208 -96 R0
SYMATTR InstName M3
SYMATTR Value irf540n
SYMATTR Prefix x
SYMBOL nmos 560 -112 R0
SYMATTR InstName M4
SYMATTR Value irf540n
SYMATTR Prefix x
SYMBOL res 576 -48 R90
WINDOW 0 0 56 VBottom 2
WINDOW 3 32 56 VTop 2
SYMATTR InstName R1
SYMATTR Value 10
SYMBOL res 576 208 R90
WINDOW 0 0 56 VBottom 2
WINDOW 3 32 56 VTop 2
SYMATTR InstName R2
SYMATTR Value 10
SYMBOL res 224 208 R90
WINDOW 0 0 56 VBottom 2
WINDOW 3 32 56 VTop 2
SYMATTR InstName R3
SYMATTR Value 10
SYMBOL res 224 -32 R90
WINDOW 0 0 56 VBottom 2
WINDOW 3 32 56 VTop 2
SYMATTR InstName R4
SYMATTR Value 10
SYMBOL voltage 848 -16 R0
WINDOW 123 0 0 Left 0
WINDOW 39 0 0 Left 0
SYMATTR InstName V2
SYMATTR Value 20
SYMBOL res 480 48 R90
WINDOW 0 0 56 VBottom 2
WINDOW 3 32 56 VTop 2
SYMATTR InstName R5
SYMATTR Value 4
SYMBOL cap -640 -192 R90
WINDOW 0 0 32 VBottom 2
WINDOW 3 32 32 VTop 2
SYMATTR InstName C1
SYMATTR Value 100µ
SYMBOL res -1472 0 R0
SYMATTR InstName R6
SYMATTR Value 10k
SYMBOL res -1472 96 R0
SYMATTR InstName R7
SYMATTR Value 10k
SYMBOL res -720 0 R90
WINDOW 0 0 56 VBottom 2
WINDOW 3 32 56 VTop 2
SYMATTR InstName R8
SYMATTR Value 1k
SYMBOL res -832 0 R90
WINDOW 0 0 56 VBottom 2
WINDOW 3 32 56 VTop 2
SYMATTR InstName R9
SYMATTR Value 100k
SYMBOL res -784 240 R90
WINDOW 0 0 56 VBottom 2
WINDOW 3 32 56 VTop 2
SYMATTR InstName R10
SYMATTR Value 8.2k
SYMBOL res -944 160 R90
WINDOW 0 0 56 VBottom 2
WINDOW 3 32 56 VTop 2
SYMATTR InstName R11
SYMATTR Value 100m
SYMBOL res -1024 160 R90
WINDOW 0 0 56 VBottom 2
WINDOW 3 32 56 VTop 2
SYMATTR InstName R12
SYMATTR Value 10k
SYMBOL Opamps\\AD795 -1040 -48 R0
SYMATTR InstName U3
SYMBOL Opamps\\AD795 -672 -32 R0
SYMATTR InstName U1
SYMBOL voltage -512 64 R0
WINDOW 123 0 0 Left 0
WINDOW 39 0 0 Left 0
SYMATTR InstName V4
SYMATTR Value SINE(6 3 10)
SYMBOL Comparators\\LT1011 -384 48 R0
SYMATTR InstName U2
SYMBOL res -256 -48 R0
SYMATTR InstName R13
SYMATTR Value 4
SYMBOL cap -128 32 R90
WINDOW 0 0 32 VBottom 2
WINDOW 3 32 32 VTop 2
SYMATTR InstName C2
SYMATTR Value 10µ
SYMBOL res -112 32 R0
SYMATTR InstName R14
SYMATTR Value 1
TEXT -368 -360 Left 2 !.INCLUDE C:\\Program Files\\LTC\\LTspiceXVII\\lib\\sub\\irf540n.sub
TEXT -368 -320 Left 2 !.tran 50
