Version 4
SHEET 1 880 680
WIRE -192 32 -240 32
WIRE -64 32 -112 32
WIRE -240 64 -240 32
WIRE -64 144 -64 96
WIRE -64 144 -192 144
WIRE -240 160 -240 144
WIRE -192 160 -192 144
FLAG -192 160 0
FLAG -240 160 0
SYMBOL cap -80 32 R0
SYMATTR InstName C1
SYMATTR Value 398µF
SYMBOL ind -288 -96 R270
WINDOW 0 32 56 VTop 2
WINDOW 3 5 56 VBottom 2
SYMATTR InstName L1
SYMATTR Value 10µH
SYMBOL res -96 16 R90
WINDOW 0 0 56 VBottom 2
WINDOW 3 32 56 VTop 2
SYMATTR InstName R1
SYMATTR Value 4
SYMBOL voltage -240 48 R0
WINDOW 3 24 44 Left 2
WINDOW 123 24 72 Left 2
WINDOW 39 0 0 Left 0
SYMATTR InstName V1
SYMATTR Value SINE(2.5 2.5 700)
TEXT -274 184 Left 2 !.tran 50ms
TEXT -272 216 Left 2 !;ac dec 20 1 10000
