Version 4
SHEET 1 880 680
WIRE -32 16 -64 16
WIRE 64 16 48 16
WIRE -64 32 -64 16
WIRE -64 32 -112 32
WIRE 64 32 64 16
WIRE 144 32 64 32
FLAG 176 160 0
SYMBOL cap -80 32 R0
SYMATTR InstName C1
SYMATTR Value 10nF
SYMBOL cap 48 32 R0
SYMATTR InstName C2
SYMATTR Value 10nF
SYMBOL ind -208 48 R270
WINDOW 0 32 56 VTop 2
WINDOW 3 5 56 VBottom 2
SYMATTR InstName L1
SYMATTR Value 5mH
SYMBOL ind 128 48 R270
WINDOW 0 32 56 VTop 2
WINDOW 3 5 56 VBottom 2
SYMATTR InstName L2
SYMATTR Value 5mH
SYMBOL res 64 0 R90
WINDOW 0 0 56 VBottom 2
WINDOW 3 32 56 VTop 2
SYMATTR InstName R1
SYMATTR Value 4
SYMBOL cap 144 -80 R90
WINDOW 0 0 32 VBottom 2
WINDOW 3 32 32 VTop 2
SYMATTR InstName C3
